**************************************************
* OpenRAM generated memory.
* Words: 16
* Data bits: 16
* Banks: 1
* Column mux: 1:1
* Trimmed: False
* LVS: False
**************************************************
* NGSPICE file created from cell_1rw.ext - technology: sky130A

.subckt cell_1rw bl br wl vdd gnd
X0 bl wl Q gnd sky130_fd_pr__nfet_01v8 ad=1.428e+11p pd=1.52e+06u as=7.728e+11p ps=4.2e+06u w=420000u l=150000u
X1 br wl Q_bar gnd sky130_fd_pr__nfet_01v8 ad=1.428e+11p pd=1.52e+06u as=7.728e+11p ps=4.2e+06u w=420000u l=150000u
X2 Q Q_bar vdd vdd sky130_fd_pr__pfet_01v8 ad=1.925e+11p pd=1.8e+06u as=3.85e+11p ps=3.6e+06u w=550000u l=150000u
X3 Q_bar Q gnd gnd sky130_fd_pr__nfet_01v8 ad=0p pd=0u as=4.41e+11p ps=3.22e+06u w=1.26e+06u l=150000u
X4 vdd Q Q_bar vdd sky130_fd_pr__pfet_01v8 ad=0p pd=0u as=1.925e+11p ps=1.8e+06u w=550000u l=150000u
X5 gnd Q_bar Q gnd sky130_fd_pr__nfet_01v8 ad=0p pd=0u as=0p ps=0u w=1.26e+06u l=150000u
.ends


.SUBCKT bitcell_array bl_0_0 br_0_0 bl_0_1 br_0_1 bl_0_2 br_0_2 bl_0_3 br_0_3 bl_0_4 br_0_4 bl_0_5 br_0_5 bl_0_6 br_0_6 bl_0_7 br_0_7 bl_0_8 br_0_8 bl_0_9 br_0_9 bl_0_10 br_0_10 bl_0_11 br_0_11 bl_0_12 br_0_12 bl_0_13 br_0_13 bl_0_14 br_0_14 bl_0_15 br_0_15 wl_0_0 wl_0_1 wl_0_2 wl_0_3 wl_0_4 wl_0_5 wl_0_6 wl_0_7 wl_0_8 wl_0_9 wl_0_10 wl_0_11 wl_0_12 wl_0_13 wl_0_14 wl_0_15 vdd gnd
*.PININFO bl_0_0:B br_0_0:B bl_0_1:B br_0_1:B bl_0_2:B br_0_2:B bl_0_3:B br_0_3:B bl_0_4:B br_0_4:B bl_0_5:B br_0_5:B bl_0_6:B br_0_6:B bl_0_7:B br_0_7:B bl_0_8:B br_0_8:B bl_0_9:B br_0_9:B bl_0_10:B br_0_10:B bl_0_11:B br_0_11:B bl_0_12:B br_0_12:B bl_0_13:B br_0_13:B bl_0_14:B br_0_14:B bl_0_15:B br_0_15:B wl_0_0:I wl_0_1:I wl_0_2:I wl_0_3:I wl_0_4:I wl_0_5:I wl_0_6:I wl_0_7:I wl_0_8:I wl_0_9:I wl_0_10:I wl_0_11:I wl_0_12:I wl_0_13:I wl_0_14:I wl_0_15:I vdd:B gnd:B
* INOUT : bl_0_0 
* INOUT : br_0_0 
* INOUT : bl_0_1 
* INOUT : br_0_1 
* INOUT : bl_0_2 
* INOUT : br_0_2 
* INOUT : bl_0_3 
* INOUT : br_0_3 
* INOUT : bl_0_4 
* INOUT : br_0_4 
* INOUT : bl_0_5 
* INOUT : br_0_5 
* INOUT : bl_0_6 
* INOUT : br_0_6 
* INOUT : bl_0_7 
* INOUT : br_0_7 
* INOUT : bl_0_8 
* INOUT : br_0_8 
* INOUT : bl_0_9 
* INOUT : br_0_9 
* INOUT : bl_0_10 
* INOUT : br_0_10 
* INOUT : bl_0_11 
* INOUT : br_0_11 
* INOUT : bl_0_12 
* INOUT : br_0_12 
* INOUT : bl_0_13 
* INOUT : br_0_13 
* INOUT : bl_0_14 
* INOUT : br_0_14 
* INOUT : bl_0_15 
* INOUT : br_0_15 
* INPUT : wl_0_0 
* INPUT : wl_0_1 
* INPUT : wl_0_2 
* INPUT : wl_0_3 
* INPUT : wl_0_4 
* INPUT : wl_0_5 
* INPUT : wl_0_6 
* INPUT : wl_0_7 
* INPUT : wl_0_8 
* INPUT : wl_0_9 
* INPUT : wl_0_10 
* INPUT : wl_0_11 
* INPUT : wl_0_12 
* INPUT : wl_0_13 
* INPUT : wl_0_14 
* INPUT : wl_0_15 
* POWER : vdd 
* GROUND: gnd 
* rows: 16 cols: 16
Xbit_r0_c0 bl_0_0 br_0_0 wl_0_0 vdd gnd cell_1rw
Xbit_r1_c0 bl_0_0 br_0_0 wl_0_1 vdd gnd cell_1rw
Xbit_r2_c0 bl_0_0 br_0_0 wl_0_2 vdd gnd cell_1rw
Xbit_r3_c0 bl_0_0 br_0_0 wl_0_3 vdd gnd cell_1rw
Xbit_r4_c0 bl_0_0 br_0_0 wl_0_4 vdd gnd cell_1rw
Xbit_r5_c0 bl_0_0 br_0_0 wl_0_5 vdd gnd cell_1rw
Xbit_r6_c0 bl_0_0 br_0_0 wl_0_6 vdd gnd cell_1rw
Xbit_r7_c0 bl_0_0 br_0_0 wl_0_7 vdd gnd cell_1rw
Xbit_r8_c0 bl_0_0 br_0_0 wl_0_8 vdd gnd cell_1rw
Xbit_r9_c0 bl_0_0 br_0_0 wl_0_9 vdd gnd cell_1rw
Xbit_r10_c0 bl_0_0 br_0_0 wl_0_10 vdd gnd cell_1rw
Xbit_r11_c0 bl_0_0 br_0_0 wl_0_11 vdd gnd cell_1rw
Xbit_r12_c0 bl_0_0 br_0_0 wl_0_12 vdd gnd cell_1rw
Xbit_r13_c0 bl_0_0 br_0_0 wl_0_13 vdd gnd cell_1rw
Xbit_r14_c0 bl_0_0 br_0_0 wl_0_14 vdd gnd cell_1rw
Xbit_r15_c0 bl_0_0 br_0_0 wl_0_15 vdd gnd cell_1rw
Xbit_r0_c1 bl_0_1 br_0_1 wl_0_0 vdd gnd cell_1rw
Xbit_r1_c1 bl_0_1 br_0_1 wl_0_1 vdd gnd cell_1rw
Xbit_r2_c1 bl_0_1 br_0_1 wl_0_2 vdd gnd cell_1rw
Xbit_r3_c1 bl_0_1 br_0_1 wl_0_3 vdd gnd cell_1rw
Xbit_r4_c1 bl_0_1 br_0_1 wl_0_4 vdd gnd cell_1rw
Xbit_r5_c1 bl_0_1 br_0_1 wl_0_5 vdd gnd cell_1rw
Xbit_r6_c1 bl_0_1 br_0_1 wl_0_6 vdd gnd cell_1rw
Xbit_r7_c1 bl_0_1 br_0_1 wl_0_7 vdd gnd cell_1rw
Xbit_r8_c1 bl_0_1 br_0_1 wl_0_8 vdd gnd cell_1rw
Xbit_r9_c1 bl_0_1 br_0_1 wl_0_9 vdd gnd cell_1rw
Xbit_r10_c1 bl_0_1 br_0_1 wl_0_10 vdd gnd cell_1rw
Xbit_r11_c1 bl_0_1 br_0_1 wl_0_11 vdd gnd cell_1rw
Xbit_r12_c1 bl_0_1 br_0_1 wl_0_12 vdd gnd cell_1rw
Xbit_r13_c1 bl_0_1 br_0_1 wl_0_13 vdd gnd cell_1rw
Xbit_r14_c1 bl_0_1 br_0_1 wl_0_14 vdd gnd cell_1rw
Xbit_r15_c1 bl_0_1 br_0_1 wl_0_15 vdd gnd cell_1rw
Xbit_r0_c2 bl_0_2 br_0_2 wl_0_0 vdd gnd cell_1rw
Xbit_r1_c2 bl_0_2 br_0_2 wl_0_1 vdd gnd cell_1rw
Xbit_r2_c2 bl_0_2 br_0_2 wl_0_2 vdd gnd cell_1rw
Xbit_r3_c2 bl_0_2 br_0_2 wl_0_3 vdd gnd cell_1rw
Xbit_r4_c2 bl_0_2 br_0_2 wl_0_4 vdd gnd cell_1rw
Xbit_r5_c2 bl_0_2 br_0_2 wl_0_5 vdd gnd cell_1rw
Xbit_r6_c2 bl_0_2 br_0_2 wl_0_6 vdd gnd cell_1rw
Xbit_r7_c2 bl_0_2 br_0_2 wl_0_7 vdd gnd cell_1rw
Xbit_r8_c2 bl_0_2 br_0_2 wl_0_8 vdd gnd cell_1rw
Xbit_r9_c2 bl_0_2 br_0_2 wl_0_9 vdd gnd cell_1rw
Xbit_r10_c2 bl_0_2 br_0_2 wl_0_10 vdd gnd cell_1rw
Xbit_r11_c2 bl_0_2 br_0_2 wl_0_11 vdd gnd cell_1rw
Xbit_r12_c2 bl_0_2 br_0_2 wl_0_12 vdd gnd cell_1rw
Xbit_r13_c2 bl_0_2 br_0_2 wl_0_13 vdd gnd cell_1rw
Xbit_r14_c2 bl_0_2 br_0_2 wl_0_14 vdd gnd cell_1rw
Xbit_r15_c2 bl_0_2 br_0_2 wl_0_15 vdd gnd cell_1rw
Xbit_r0_c3 bl_0_3 br_0_3 wl_0_0 vdd gnd cell_1rw
Xbit_r1_c3 bl_0_3 br_0_3 wl_0_1 vdd gnd cell_1rw
Xbit_r2_c3 bl_0_3 br_0_3 wl_0_2 vdd gnd cell_1rw
Xbit_r3_c3 bl_0_3 br_0_3 wl_0_3 vdd gnd cell_1rw
Xbit_r4_c3 bl_0_3 br_0_3 wl_0_4 vdd gnd cell_1rw
Xbit_r5_c3 bl_0_3 br_0_3 wl_0_5 vdd gnd cell_1rw
Xbit_r6_c3 bl_0_3 br_0_3 wl_0_6 vdd gnd cell_1rw
Xbit_r7_c3 bl_0_3 br_0_3 wl_0_7 vdd gnd cell_1rw
Xbit_r8_c3 bl_0_3 br_0_3 wl_0_8 vdd gnd cell_1rw
Xbit_r9_c3 bl_0_3 br_0_3 wl_0_9 vdd gnd cell_1rw
Xbit_r10_c3 bl_0_3 br_0_3 wl_0_10 vdd gnd cell_1rw
Xbit_r11_c3 bl_0_3 br_0_3 wl_0_11 vdd gnd cell_1rw
Xbit_r12_c3 bl_0_3 br_0_3 wl_0_12 vdd gnd cell_1rw
Xbit_r13_c3 bl_0_3 br_0_3 wl_0_13 vdd gnd cell_1rw
Xbit_r14_c3 bl_0_3 br_0_3 wl_0_14 vdd gnd cell_1rw
Xbit_r15_c3 bl_0_3 br_0_3 wl_0_15 vdd gnd cell_1rw
Xbit_r0_c4 bl_0_4 br_0_4 wl_0_0 vdd gnd cell_1rw
Xbit_r1_c4 bl_0_4 br_0_4 wl_0_1 vdd gnd cell_1rw
Xbit_r2_c4 bl_0_4 br_0_4 wl_0_2 vdd gnd cell_1rw
Xbit_r3_c4 bl_0_4 br_0_4 wl_0_3 vdd gnd cell_1rw
Xbit_r4_c4 bl_0_4 br_0_4 wl_0_4 vdd gnd cell_1rw
Xbit_r5_c4 bl_0_4 br_0_4 wl_0_5 vdd gnd cell_1rw
Xbit_r6_c4 bl_0_4 br_0_4 wl_0_6 vdd gnd cell_1rw
Xbit_r7_c4 bl_0_4 br_0_4 wl_0_7 vdd gnd cell_1rw
Xbit_r8_c4 bl_0_4 br_0_4 wl_0_8 vdd gnd cell_1rw
Xbit_r9_c4 bl_0_4 br_0_4 wl_0_9 vdd gnd cell_1rw
Xbit_r10_c4 bl_0_4 br_0_4 wl_0_10 vdd gnd cell_1rw
Xbit_r11_c4 bl_0_4 br_0_4 wl_0_11 vdd gnd cell_1rw
Xbit_r12_c4 bl_0_4 br_0_4 wl_0_12 vdd gnd cell_1rw
Xbit_r13_c4 bl_0_4 br_0_4 wl_0_13 vdd gnd cell_1rw
Xbit_r14_c4 bl_0_4 br_0_4 wl_0_14 vdd gnd cell_1rw
Xbit_r15_c4 bl_0_4 br_0_4 wl_0_15 vdd gnd cell_1rw
Xbit_r0_c5 bl_0_5 br_0_5 wl_0_0 vdd gnd cell_1rw
Xbit_r1_c5 bl_0_5 br_0_5 wl_0_1 vdd gnd cell_1rw
Xbit_r2_c5 bl_0_5 br_0_5 wl_0_2 vdd gnd cell_1rw
Xbit_r3_c5 bl_0_5 br_0_5 wl_0_3 vdd gnd cell_1rw
Xbit_r4_c5 bl_0_5 br_0_5 wl_0_4 vdd gnd cell_1rw
Xbit_r5_c5 bl_0_5 br_0_5 wl_0_5 vdd gnd cell_1rw
Xbit_r6_c5 bl_0_5 br_0_5 wl_0_6 vdd gnd cell_1rw
Xbit_r7_c5 bl_0_5 br_0_5 wl_0_7 vdd gnd cell_1rw
Xbit_r8_c5 bl_0_5 br_0_5 wl_0_8 vdd gnd cell_1rw
Xbit_r9_c5 bl_0_5 br_0_5 wl_0_9 vdd gnd cell_1rw
Xbit_r10_c5 bl_0_5 br_0_5 wl_0_10 vdd gnd cell_1rw
Xbit_r11_c5 bl_0_5 br_0_5 wl_0_11 vdd gnd cell_1rw
Xbit_r12_c5 bl_0_5 br_0_5 wl_0_12 vdd gnd cell_1rw
Xbit_r13_c5 bl_0_5 br_0_5 wl_0_13 vdd gnd cell_1rw
Xbit_r14_c5 bl_0_5 br_0_5 wl_0_14 vdd gnd cell_1rw
Xbit_r15_c5 bl_0_5 br_0_5 wl_0_15 vdd gnd cell_1rw
Xbit_r0_c6 bl_0_6 br_0_6 wl_0_0 vdd gnd cell_1rw
Xbit_r1_c6 bl_0_6 br_0_6 wl_0_1 vdd gnd cell_1rw
Xbit_r2_c6 bl_0_6 br_0_6 wl_0_2 vdd gnd cell_1rw
Xbit_r3_c6 bl_0_6 br_0_6 wl_0_3 vdd gnd cell_1rw
Xbit_r4_c6 bl_0_6 br_0_6 wl_0_4 vdd gnd cell_1rw
Xbit_r5_c6 bl_0_6 br_0_6 wl_0_5 vdd gnd cell_1rw
Xbit_r6_c6 bl_0_6 br_0_6 wl_0_6 vdd gnd cell_1rw
Xbit_r7_c6 bl_0_6 br_0_6 wl_0_7 vdd gnd cell_1rw
Xbit_r8_c6 bl_0_6 br_0_6 wl_0_8 vdd gnd cell_1rw
Xbit_r9_c6 bl_0_6 br_0_6 wl_0_9 vdd gnd cell_1rw
Xbit_r10_c6 bl_0_6 br_0_6 wl_0_10 vdd gnd cell_1rw
Xbit_r11_c6 bl_0_6 br_0_6 wl_0_11 vdd gnd cell_1rw
Xbit_r12_c6 bl_0_6 br_0_6 wl_0_12 vdd gnd cell_1rw
Xbit_r13_c6 bl_0_6 br_0_6 wl_0_13 vdd gnd cell_1rw
Xbit_r14_c6 bl_0_6 br_0_6 wl_0_14 vdd gnd cell_1rw
Xbit_r15_c6 bl_0_6 br_0_6 wl_0_15 vdd gnd cell_1rw
Xbit_r0_c7 bl_0_7 br_0_7 wl_0_0 vdd gnd cell_1rw
Xbit_r1_c7 bl_0_7 br_0_7 wl_0_1 vdd gnd cell_1rw
Xbit_r2_c7 bl_0_7 br_0_7 wl_0_2 vdd gnd cell_1rw
Xbit_r3_c7 bl_0_7 br_0_7 wl_0_3 vdd gnd cell_1rw
Xbit_r4_c7 bl_0_7 br_0_7 wl_0_4 vdd gnd cell_1rw
Xbit_r5_c7 bl_0_7 br_0_7 wl_0_5 vdd gnd cell_1rw
Xbit_r6_c7 bl_0_7 br_0_7 wl_0_6 vdd gnd cell_1rw
Xbit_r7_c7 bl_0_7 br_0_7 wl_0_7 vdd gnd cell_1rw
Xbit_r8_c7 bl_0_7 br_0_7 wl_0_8 vdd gnd cell_1rw
Xbit_r9_c7 bl_0_7 br_0_7 wl_0_9 vdd gnd cell_1rw
Xbit_r10_c7 bl_0_7 br_0_7 wl_0_10 vdd gnd cell_1rw
Xbit_r11_c7 bl_0_7 br_0_7 wl_0_11 vdd gnd cell_1rw
Xbit_r12_c7 bl_0_7 br_0_7 wl_0_12 vdd gnd cell_1rw
Xbit_r13_c7 bl_0_7 br_0_7 wl_0_13 vdd gnd cell_1rw
Xbit_r14_c7 bl_0_7 br_0_7 wl_0_14 vdd gnd cell_1rw
Xbit_r15_c7 bl_0_7 br_0_7 wl_0_15 vdd gnd cell_1rw
Xbit_r0_c8 bl_0_8 br_0_8 wl_0_0 vdd gnd cell_1rw
Xbit_r1_c8 bl_0_8 br_0_8 wl_0_1 vdd gnd cell_1rw
Xbit_r2_c8 bl_0_8 br_0_8 wl_0_2 vdd gnd cell_1rw
Xbit_r3_c8 bl_0_8 br_0_8 wl_0_3 vdd gnd cell_1rw
Xbit_r4_c8 bl_0_8 br_0_8 wl_0_4 vdd gnd cell_1rw
Xbit_r5_c8 bl_0_8 br_0_8 wl_0_5 vdd gnd cell_1rw
Xbit_r6_c8 bl_0_8 br_0_8 wl_0_6 vdd gnd cell_1rw
Xbit_r7_c8 bl_0_8 br_0_8 wl_0_7 vdd gnd cell_1rw
Xbit_r8_c8 bl_0_8 br_0_8 wl_0_8 vdd gnd cell_1rw
Xbit_r9_c8 bl_0_8 br_0_8 wl_0_9 vdd gnd cell_1rw
Xbit_r10_c8 bl_0_8 br_0_8 wl_0_10 vdd gnd cell_1rw
Xbit_r11_c8 bl_0_8 br_0_8 wl_0_11 vdd gnd cell_1rw
Xbit_r12_c8 bl_0_8 br_0_8 wl_0_12 vdd gnd cell_1rw
Xbit_r13_c8 bl_0_8 br_0_8 wl_0_13 vdd gnd cell_1rw
Xbit_r14_c8 bl_0_8 br_0_8 wl_0_14 vdd gnd cell_1rw
Xbit_r15_c8 bl_0_8 br_0_8 wl_0_15 vdd gnd cell_1rw
Xbit_r0_c9 bl_0_9 br_0_9 wl_0_0 vdd gnd cell_1rw
Xbit_r1_c9 bl_0_9 br_0_9 wl_0_1 vdd gnd cell_1rw
Xbit_r2_c9 bl_0_9 br_0_9 wl_0_2 vdd gnd cell_1rw
Xbit_r3_c9 bl_0_9 br_0_9 wl_0_3 vdd gnd cell_1rw
Xbit_r4_c9 bl_0_9 br_0_9 wl_0_4 vdd gnd cell_1rw
Xbit_r5_c9 bl_0_9 br_0_9 wl_0_5 vdd gnd cell_1rw
Xbit_r6_c9 bl_0_9 br_0_9 wl_0_6 vdd gnd cell_1rw
Xbit_r7_c9 bl_0_9 br_0_9 wl_0_7 vdd gnd cell_1rw
Xbit_r8_c9 bl_0_9 br_0_9 wl_0_8 vdd gnd cell_1rw
Xbit_r9_c9 bl_0_9 br_0_9 wl_0_9 vdd gnd cell_1rw
Xbit_r10_c9 bl_0_9 br_0_9 wl_0_10 vdd gnd cell_1rw
Xbit_r11_c9 bl_0_9 br_0_9 wl_0_11 vdd gnd cell_1rw
Xbit_r12_c9 bl_0_9 br_0_9 wl_0_12 vdd gnd cell_1rw
Xbit_r13_c9 bl_0_9 br_0_9 wl_0_13 vdd gnd cell_1rw
Xbit_r14_c9 bl_0_9 br_0_9 wl_0_14 vdd gnd cell_1rw
Xbit_r15_c9 bl_0_9 br_0_9 wl_0_15 vdd gnd cell_1rw
Xbit_r0_c10 bl_0_10 br_0_10 wl_0_0 vdd gnd cell_1rw
Xbit_r1_c10 bl_0_10 br_0_10 wl_0_1 vdd gnd cell_1rw
Xbit_r2_c10 bl_0_10 br_0_10 wl_0_2 vdd gnd cell_1rw
Xbit_r3_c10 bl_0_10 br_0_10 wl_0_3 vdd gnd cell_1rw
Xbit_r4_c10 bl_0_10 br_0_10 wl_0_4 vdd gnd cell_1rw
Xbit_r5_c10 bl_0_10 br_0_10 wl_0_5 vdd gnd cell_1rw
Xbit_r6_c10 bl_0_10 br_0_10 wl_0_6 vdd gnd cell_1rw
Xbit_r7_c10 bl_0_10 br_0_10 wl_0_7 vdd gnd cell_1rw
Xbit_r8_c10 bl_0_10 br_0_10 wl_0_8 vdd gnd cell_1rw
Xbit_r9_c10 bl_0_10 br_0_10 wl_0_9 vdd gnd cell_1rw
Xbit_r10_c10 bl_0_10 br_0_10 wl_0_10 vdd gnd cell_1rw
Xbit_r11_c10 bl_0_10 br_0_10 wl_0_11 vdd gnd cell_1rw
Xbit_r12_c10 bl_0_10 br_0_10 wl_0_12 vdd gnd cell_1rw
Xbit_r13_c10 bl_0_10 br_0_10 wl_0_13 vdd gnd cell_1rw
Xbit_r14_c10 bl_0_10 br_0_10 wl_0_14 vdd gnd cell_1rw
Xbit_r15_c10 bl_0_10 br_0_10 wl_0_15 vdd gnd cell_1rw
Xbit_r0_c11 bl_0_11 br_0_11 wl_0_0 vdd gnd cell_1rw
Xbit_r1_c11 bl_0_11 br_0_11 wl_0_1 vdd gnd cell_1rw
Xbit_r2_c11 bl_0_11 br_0_11 wl_0_2 vdd gnd cell_1rw
Xbit_r3_c11 bl_0_11 br_0_11 wl_0_3 vdd gnd cell_1rw
Xbit_r4_c11 bl_0_11 br_0_11 wl_0_4 vdd gnd cell_1rw
Xbit_r5_c11 bl_0_11 br_0_11 wl_0_5 vdd gnd cell_1rw
Xbit_r6_c11 bl_0_11 br_0_11 wl_0_6 vdd gnd cell_1rw
Xbit_r7_c11 bl_0_11 br_0_11 wl_0_7 vdd gnd cell_1rw
Xbit_r8_c11 bl_0_11 br_0_11 wl_0_8 vdd gnd cell_1rw
Xbit_r9_c11 bl_0_11 br_0_11 wl_0_9 vdd gnd cell_1rw
Xbit_r10_c11 bl_0_11 br_0_11 wl_0_10 vdd gnd cell_1rw
Xbit_r11_c11 bl_0_11 br_0_11 wl_0_11 vdd gnd cell_1rw
Xbit_r12_c11 bl_0_11 br_0_11 wl_0_12 vdd gnd cell_1rw
Xbit_r13_c11 bl_0_11 br_0_11 wl_0_13 vdd gnd cell_1rw
Xbit_r14_c11 bl_0_11 br_0_11 wl_0_14 vdd gnd cell_1rw
Xbit_r15_c11 bl_0_11 br_0_11 wl_0_15 vdd gnd cell_1rw
Xbit_r0_c12 bl_0_12 br_0_12 wl_0_0 vdd gnd cell_1rw
Xbit_r1_c12 bl_0_12 br_0_12 wl_0_1 vdd gnd cell_1rw
Xbit_r2_c12 bl_0_12 br_0_12 wl_0_2 vdd gnd cell_1rw
Xbit_r3_c12 bl_0_12 br_0_12 wl_0_3 vdd gnd cell_1rw
Xbit_r4_c12 bl_0_12 br_0_12 wl_0_4 vdd gnd cell_1rw
Xbit_r5_c12 bl_0_12 br_0_12 wl_0_5 vdd gnd cell_1rw
Xbit_r6_c12 bl_0_12 br_0_12 wl_0_6 vdd gnd cell_1rw
Xbit_r7_c12 bl_0_12 br_0_12 wl_0_7 vdd gnd cell_1rw
Xbit_r8_c12 bl_0_12 br_0_12 wl_0_8 vdd gnd cell_1rw
Xbit_r9_c12 bl_0_12 br_0_12 wl_0_9 vdd gnd cell_1rw
Xbit_r10_c12 bl_0_12 br_0_12 wl_0_10 vdd gnd cell_1rw
Xbit_r11_c12 bl_0_12 br_0_12 wl_0_11 vdd gnd cell_1rw
Xbit_r12_c12 bl_0_12 br_0_12 wl_0_12 vdd gnd cell_1rw
Xbit_r13_c12 bl_0_12 br_0_12 wl_0_13 vdd gnd cell_1rw
Xbit_r14_c12 bl_0_12 br_0_12 wl_0_14 vdd gnd cell_1rw
Xbit_r15_c12 bl_0_12 br_0_12 wl_0_15 vdd gnd cell_1rw
Xbit_r0_c13 bl_0_13 br_0_13 wl_0_0 vdd gnd cell_1rw
Xbit_r1_c13 bl_0_13 br_0_13 wl_0_1 vdd gnd cell_1rw
Xbit_r2_c13 bl_0_13 br_0_13 wl_0_2 vdd gnd cell_1rw
Xbit_r3_c13 bl_0_13 br_0_13 wl_0_3 vdd gnd cell_1rw
Xbit_r4_c13 bl_0_13 br_0_13 wl_0_4 vdd gnd cell_1rw
Xbit_r5_c13 bl_0_13 br_0_13 wl_0_5 vdd gnd cell_1rw
Xbit_r6_c13 bl_0_13 br_0_13 wl_0_6 vdd gnd cell_1rw
Xbit_r7_c13 bl_0_13 br_0_13 wl_0_7 vdd gnd cell_1rw
Xbit_r8_c13 bl_0_13 br_0_13 wl_0_8 vdd gnd cell_1rw
Xbit_r9_c13 bl_0_13 br_0_13 wl_0_9 vdd gnd cell_1rw
Xbit_r10_c13 bl_0_13 br_0_13 wl_0_10 vdd gnd cell_1rw
Xbit_r11_c13 bl_0_13 br_0_13 wl_0_11 vdd gnd cell_1rw
Xbit_r12_c13 bl_0_13 br_0_13 wl_0_12 vdd gnd cell_1rw
Xbit_r13_c13 bl_0_13 br_0_13 wl_0_13 vdd gnd cell_1rw
Xbit_r14_c13 bl_0_13 br_0_13 wl_0_14 vdd gnd cell_1rw
Xbit_r15_c13 bl_0_13 br_0_13 wl_0_15 vdd gnd cell_1rw
Xbit_r0_c14 bl_0_14 br_0_14 wl_0_0 vdd gnd cell_1rw
Xbit_r1_c14 bl_0_14 br_0_14 wl_0_1 vdd gnd cell_1rw
Xbit_r2_c14 bl_0_14 br_0_14 wl_0_2 vdd gnd cell_1rw
Xbit_r3_c14 bl_0_14 br_0_14 wl_0_3 vdd gnd cell_1rw
Xbit_r4_c14 bl_0_14 br_0_14 wl_0_4 vdd gnd cell_1rw
Xbit_r5_c14 bl_0_14 br_0_14 wl_0_5 vdd gnd cell_1rw
Xbit_r6_c14 bl_0_14 br_0_14 wl_0_6 vdd gnd cell_1rw
Xbit_r7_c14 bl_0_14 br_0_14 wl_0_7 vdd gnd cell_1rw
Xbit_r8_c14 bl_0_14 br_0_14 wl_0_8 vdd gnd cell_1rw
Xbit_r9_c14 bl_0_14 br_0_14 wl_0_9 vdd gnd cell_1rw
Xbit_r10_c14 bl_0_14 br_0_14 wl_0_10 vdd gnd cell_1rw
Xbit_r11_c14 bl_0_14 br_0_14 wl_0_11 vdd gnd cell_1rw
Xbit_r12_c14 bl_0_14 br_0_14 wl_0_12 vdd gnd cell_1rw
Xbit_r13_c14 bl_0_14 br_0_14 wl_0_13 vdd gnd cell_1rw
Xbit_r14_c14 bl_0_14 br_0_14 wl_0_14 vdd gnd cell_1rw
Xbit_r15_c14 bl_0_14 br_0_14 wl_0_15 vdd gnd cell_1rw
Xbit_r0_c15 bl_0_15 br_0_15 wl_0_0 vdd gnd cell_1rw
Xbit_r1_c15 bl_0_15 br_0_15 wl_0_1 vdd gnd cell_1rw
Xbit_r2_c15 bl_0_15 br_0_15 wl_0_2 vdd gnd cell_1rw
Xbit_r3_c15 bl_0_15 br_0_15 wl_0_3 vdd gnd cell_1rw
Xbit_r4_c15 bl_0_15 br_0_15 wl_0_4 vdd gnd cell_1rw
Xbit_r5_c15 bl_0_15 br_0_15 wl_0_5 vdd gnd cell_1rw
Xbit_r6_c15 bl_0_15 br_0_15 wl_0_6 vdd gnd cell_1rw
Xbit_r7_c15 bl_0_15 br_0_15 wl_0_7 vdd gnd cell_1rw
Xbit_r8_c15 bl_0_15 br_0_15 wl_0_8 vdd gnd cell_1rw
Xbit_r9_c15 bl_0_15 br_0_15 wl_0_9 vdd gnd cell_1rw
Xbit_r10_c15 bl_0_15 br_0_15 wl_0_10 vdd gnd cell_1rw
Xbit_r11_c15 bl_0_15 br_0_15 wl_0_11 vdd gnd cell_1rw
Xbit_r12_c15 bl_0_15 br_0_15 wl_0_12 vdd gnd cell_1rw
Xbit_r13_c15 bl_0_15 br_0_15 wl_0_13 vdd gnd cell_1rw
Xbit_r14_c15 bl_0_15 br_0_15 wl_0_14 vdd gnd cell_1rw
Xbit_r15_c15 bl_0_15 br_0_15 wl_0_15 vdd gnd cell_1rw
.ENDS bitcell_array
* NGSPICE file created from replica_cell_1rw.ext - technology: sky130A

.subckt replica_cell_1rw bl br wl vdd gnd
X0 bl wl Q gnd sky130_fd_pr__nfet_01v8 ad=1.428e+11p pd=1.52e+06u as=7.728e+11p ps=4.2e+06u w=420000u l=150000u
X1 br wl Q_bar gnd sky130_fd_pr__nfet_01v8 ad=1.428e+11p pd=1.52e+06u as=7.728e+11p ps=4.2e+06u w=420000u l=150000u
X2 Q Q_bar vdd vdd sky130_fd_pr__pfet_01v8 ad=1.925e+11p pd=1.8e+06u as=3.85e+11p ps=3.6e+06u w=550000u l=150000u
X3 Q_bar Q gnd gnd sky130_fd_pr__nfet_01v8 ad=0p pd=0u as=4.41e+11p ps=3.22e+06u w=1.26e+06u l=150000u
X4 vdd Q Q_bar vdd sky130_fd_pr__pfet_01v8 ad=0p pd=0u as=1.925e+11p ps=1.8e+06u w=550000u l=150000u
X5 gnd Q_bar Q gnd sky130_fd_pr__nfet_01v8 ad=0p pd=0u as=0p ps=0u w=1.26e+06u l=150000u
.ends

* NGSPICE file created from dummy_cell_1rw.ext - technology: sky130A

.subckt dummy_cell_1rw bl br wl vdd gnd
X0 bl wl Q gnd sky130_fd_pr__nfet_01v8 ad=1.428e+11p pd=1.52e+06u as=7.728e+11p ps=4.2e+06u w=420000u l=150000u
X1 br wl Q_bar gnd sky130_fd_pr__nfet_01v8 ad=1.428e+11p pd=1.52e+06u as=7.728e+11p ps=4.2e+06u w=420000u l=150000u
X2 Q Q_bar vdd vdd sky130_fd_pr__pfet_01v8 ad=1.925e+11p pd=1.8e+06u as=3.85e+11p ps=3.6e+06u w=550000u l=150000u
X3 Q_bar Q gnd gnd sky130_fd_pr__nfet_01v8 ad=0p pd=0u as=4.41e+11p ps=3.22e+06u w=1.26e+06u l=150000u
X4 vdd Q Q_bar vdd sky130_fd_pr__pfet_01v8 ad=0p pd=0u as=1.925e+11p ps=1.8e+06u w=550000u l=150000u
X5 gnd Q_bar Q gnd sky130_fd_pr__nfet_01v8 ad=0p pd=0u as=0p ps=0u w=1.26e+06u l=150000u
.ends


.SUBCKT replica_column bl_0_0 br_0_0 wl_0_0 wl_0_1 wl_0_2 wl_0_3 wl_0_4 wl_0_5 wl_0_6 wl_0_7 wl_0_8 wl_0_9 wl_0_10 wl_0_11 wl_0_12 wl_0_13 wl_0_14 wl_0_15 wl_0_16 wl_0_17 wl_0_18 vdd gnd
*.PININFO bl_0_0:O br_0_0:O wl_0_0:I wl_0_1:I wl_0_2:I wl_0_3:I wl_0_4:I wl_0_5:I wl_0_6:I wl_0_7:I wl_0_8:I wl_0_9:I wl_0_10:I wl_0_11:I wl_0_12:I wl_0_13:I wl_0_14:I wl_0_15:I wl_0_16:I wl_0_17:I wl_0_18:I vdd:B gnd:B
* OUTPUT: bl_0_0 
* OUTPUT: br_0_0 
* INPUT : wl_0_0 
* INPUT : wl_0_1 
* INPUT : wl_0_2 
* INPUT : wl_0_3 
* INPUT : wl_0_4 
* INPUT : wl_0_5 
* INPUT : wl_0_6 
* INPUT : wl_0_7 
* INPUT : wl_0_8 
* INPUT : wl_0_9 
* INPUT : wl_0_10 
* INPUT : wl_0_11 
* INPUT : wl_0_12 
* INPUT : wl_0_13 
* INPUT : wl_0_14 
* INPUT : wl_0_15 
* INPUT : wl_0_16 
* INPUT : wl_0_17 
* INPUT : wl_0_18 
* POWER : vdd 
* GROUND: gnd 
Xrbc_0 bl_0_0 br_0_0 wl_0_0 vdd gnd dummy_cell_1rw
Xrbc_1 bl_0_0 br_0_0 wl_0_1 vdd gnd replica_cell_1rw
Xrbc_2 bl_0_0 br_0_0 wl_0_2 vdd gnd replica_cell_1rw
Xrbc_3 bl_0_0 br_0_0 wl_0_3 vdd gnd replica_cell_1rw
Xrbc_4 bl_0_0 br_0_0 wl_0_4 vdd gnd replica_cell_1rw
Xrbc_5 bl_0_0 br_0_0 wl_0_5 vdd gnd replica_cell_1rw
Xrbc_6 bl_0_0 br_0_0 wl_0_6 vdd gnd replica_cell_1rw
Xrbc_7 bl_0_0 br_0_0 wl_0_7 vdd gnd replica_cell_1rw
Xrbc_8 bl_0_0 br_0_0 wl_0_8 vdd gnd replica_cell_1rw
Xrbc_9 bl_0_0 br_0_0 wl_0_9 vdd gnd replica_cell_1rw
Xrbc_10 bl_0_0 br_0_0 wl_0_10 vdd gnd replica_cell_1rw
Xrbc_11 bl_0_0 br_0_0 wl_0_11 vdd gnd replica_cell_1rw
Xrbc_12 bl_0_0 br_0_0 wl_0_12 vdd gnd replica_cell_1rw
Xrbc_13 bl_0_0 br_0_0 wl_0_13 vdd gnd replica_cell_1rw
Xrbc_14 bl_0_0 br_0_0 wl_0_14 vdd gnd replica_cell_1rw
Xrbc_15 bl_0_0 br_0_0 wl_0_15 vdd gnd replica_cell_1rw
Xrbc_16 bl_0_0 br_0_0 wl_0_16 vdd gnd replica_cell_1rw
Xrbc_17 bl_0_0 br_0_0 wl_0_17 vdd gnd replica_cell_1rw
Xrbc_18 bl_0_0 br_0_0 wl_0_18 vdd gnd dummy_cell_1rw
.ENDS replica_column

.SUBCKT dummy_array bl_0_0 br_0_0 bl_0_1 br_0_1 bl_0_2 br_0_2 bl_0_3 br_0_3 bl_0_4 br_0_4 bl_0_5 br_0_5 bl_0_6 br_0_6 bl_0_7 br_0_7 bl_0_8 br_0_8 bl_0_9 br_0_9 bl_0_10 br_0_10 bl_0_11 br_0_11 bl_0_12 br_0_12 bl_0_13 br_0_13 bl_0_14 br_0_14 bl_0_15 br_0_15 wl_0_0 vdd gnd
*.PININFO bl_0_0:B br_0_0:B bl_0_1:B br_0_1:B bl_0_2:B br_0_2:B bl_0_3:B br_0_3:B bl_0_4:B br_0_4:B bl_0_5:B br_0_5:B bl_0_6:B br_0_6:B bl_0_7:B br_0_7:B bl_0_8:B br_0_8:B bl_0_9:B br_0_9:B bl_0_10:B br_0_10:B bl_0_11:B br_0_11:B bl_0_12:B br_0_12:B bl_0_13:B br_0_13:B bl_0_14:B br_0_14:B bl_0_15:B br_0_15:B wl_0_0:I vdd:B gnd:B
* INOUT : bl_0_0 
* INOUT : br_0_0 
* INOUT : bl_0_1 
* INOUT : br_0_1 
* INOUT : bl_0_2 
* INOUT : br_0_2 
* INOUT : bl_0_3 
* INOUT : br_0_3 
* INOUT : bl_0_4 
* INOUT : br_0_4 
* INOUT : bl_0_5 
* INOUT : br_0_5 
* INOUT : bl_0_6 
* INOUT : br_0_6 
* INOUT : bl_0_7 
* INOUT : br_0_7 
* INOUT : bl_0_8 
* INOUT : br_0_8 
* INOUT : bl_0_9 
* INOUT : br_0_9 
* INOUT : bl_0_10 
* INOUT : br_0_10 
* INOUT : bl_0_11 
* INOUT : br_0_11 
* INOUT : bl_0_12 
* INOUT : br_0_12 
* INOUT : bl_0_13 
* INOUT : br_0_13 
* INOUT : bl_0_14 
* INOUT : br_0_14 
* INOUT : bl_0_15 
* INOUT : br_0_15 
* INPUT : wl_0_0 
* POWER : vdd 
* GROUND: gnd 
Xbit_r0_c0 bl_0_0 br_0_0 wl_0_0 vdd gnd dummy_cell_1rw
Xbit_r0_c1 bl_0_1 br_0_1 wl_0_0 vdd gnd dummy_cell_1rw
Xbit_r0_c2 bl_0_2 br_0_2 wl_0_0 vdd gnd dummy_cell_1rw
Xbit_r0_c3 bl_0_3 br_0_3 wl_0_0 vdd gnd dummy_cell_1rw
Xbit_r0_c4 bl_0_4 br_0_4 wl_0_0 vdd gnd dummy_cell_1rw
Xbit_r0_c5 bl_0_5 br_0_5 wl_0_0 vdd gnd dummy_cell_1rw
Xbit_r0_c6 bl_0_6 br_0_6 wl_0_0 vdd gnd dummy_cell_1rw
Xbit_r0_c7 bl_0_7 br_0_7 wl_0_0 vdd gnd dummy_cell_1rw
Xbit_r0_c8 bl_0_8 br_0_8 wl_0_0 vdd gnd dummy_cell_1rw
Xbit_r0_c9 bl_0_9 br_0_9 wl_0_0 vdd gnd dummy_cell_1rw
Xbit_r0_c10 bl_0_10 br_0_10 wl_0_0 vdd gnd dummy_cell_1rw
Xbit_r0_c11 bl_0_11 br_0_11 wl_0_0 vdd gnd dummy_cell_1rw
Xbit_r0_c12 bl_0_12 br_0_12 wl_0_0 vdd gnd dummy_cell_1rw
Xbit_r0_c13 bl_0_13 br_0_13 wl_0_0 vdd gnd dummy_cell_1rw
Xbit_r0_c14 bl_0_14 br_0_14 wl_0_0 vdd gnd dummy_cell_1rw
Xbit_r0_c15 bl_0_15 br_0_15 wl_0_0 vdd gnd dummy_cell_1rw
.ENDS dummy_array

.SUBCKT dummy_array_0 bl_0_0 br_0_0 bl_0_1 br_0_1 bl_0_2 br_0_2 bl_0_3 br_0_3 bl_0_4 br_0_4 bl_0_5 br_0_5 bl_0_6 br_0_6 bl_0_7 br_0_7 bl_0_8 br_0_8 bl_0_9 br_0_9 bl_0_10 br_0_10 bl_0_11 br_0_11 bl_0_12 br_0_12 bl_0_13 br_0_13 bl_0_14 br_0_14 bl_0_15 br_0_15 wl_0_0 vdd gnd
*.PININFO bl_0_0:B br_0_0:B bl_0_1:B br_0_1:B bl_0_2:B br_0_2:B bl_0_3:B br_0_3:B bl_0_4:B br_0_4:B bl_0_5:B br_0_5:B bl_0_6:B br_0_6:B bl_0_7:B br_0_7:B bl_0_8:B br_0_8:B bl_0_9:B br_0_9:B bl_0_10:B br_0_10:B bl_0_11:B br_0_11:B bl_0_12:B br_0_12:B bl_0_13:B br_0_13:B bl_0_14:B br_0_14:B bl_0_15:B br_0_15:B wl_0_0:I vdd:B gnd:B
* INOUT : bl_0_0 
* INOUT : br_0_0 
* INOUT : bl_0_1 
* INOUT : br_0_1 
* INOUT : bl_0_2 
* INOUT : br_0_2 
* INOUT : bl_0_3 
* INOUT : br_0_3 
* INOUT : bl_0_4 
* INOUT : br_0_4 
* INOUT : bl_0_5 
* INOUT : br_0_5 
* INOUT : bl_0_6 
* INOUT : br_0_6 
* INOUT : bl_0_7 
* INOUT : br_0_7 
* INOUT : bl_0_8 
* INOUT : br_0_8 
* INOUT : bl_0_9 
* INOUT : br_0_9 
* INOUT : bl_0_10 
* INOUT : br_0_10 
* INOUT : bl_0_11 
* INOUT : br_0_11 
* INOUT : bl_0_12 
* INOUT : br_0_12 
* INOUT : bl_0_13 
* INOUT : br_0_13 
* INOUT : bl_0_14 
* INOUT : br_0_14 
* INOUT : bl_0_15 
* INOUT : br_0_15 
* INPUT : wl_0_0 
* POWER : vdd 
* GROUND: gnd 
Xbit_r0_c0 bl_0_0 br_0_0 wl_0_0 vdd gnd dummy_cell_1rw
Xbit_r0_c1 bl_0_1 br_0_1 wl_0_0 vdd gnd dummy_cell_1rw
Xbit_r0_c2 bl_0_2 br_0_2 wl_0_0 vdd gnd dummy_cell_1rw
Xbit_r0_c3 bl_0_3 br_0_3 wl_0_0 vdd gnd dummy_cell_1rw
Xbit_r0_c4 bl_0_4 br_0_4 wl_0_0 vdd gnd dummy_cell_1rw
Xbit_r0_c5 bl_0_5 br_0_5 wl_0_0 vdd gnd dummy_cell_1rw
Xbit_r0_c6 bl_0_6 br_0_6 wl_0_0 vdd gnd dummy_cell_1rw
Xbit_r0_c7 bl_0_7 br_0_7 wl_0_0 vdd gnd dummy_cell_1rw
Xbit_r0_c8 bl_0_8 br_0_8 wl_0_0 vdd gnd dummy_cell_1rw
Xbit_r0_c9 bl_0_9 br_0_9 wl_0_0 vdd gnd dummy_cell_1rw
Xbit_r0_c10 bl_0_10 br_0_10 wl_0_0 vdd gnd dummy_cell_1rw
Xbit_r0_c11 bl_0_11 br_0_11 wl_0_0 vdd gnd dummy_cell_1rw
Xbit_r0_c12 bl_0_12 br_0_12 wl_0_0 vdd gnd dummy_cell_1rw
Xbit_r0_c13 bl_0_13 br_0_13 wl_0_0 vdd gnd dummy_cell_1rw
Xbit_r0_c14 bl_0_14 br_0_14 wl_0_0 vdd gnd dummy_cell_1rw
Xbit_r0_c15 bl_0_15 br_0_15 wl_0_0 vdd gnd dummy_cell_1rw
.ENDS dummy_array_0

.SUBCKT dummy_array_1 bl_0_0 br_0_0 bl_0_1 br_0_1 bl_0_2 br_0_2 bl_0_3 br_0_3 bl_0_4 br_0_4 bl_0_5 br_0_5 bl_0_6 br_0_6 bl_0_7 br_0_7 bl_0_8 br_0_8 bl_0_9 br_0_9 bl_0_10 br_0_10 bl_0_11 br_0_11 bl_0_12 br_0_12 bl_0_13 br_0_13 bl_0_14 br_0_14 bl_0_15 br_0_15 wl_0_0 vdd gnd
*.PININFO bl_0_0:B br_0_0:B bl_0_1:B br_0_1:B bl_0_2:B br_0_2:B bl_0_3:B br_0_3:B bl_0_4:B br_0_4:B bl_0_5:B br_0_5:B bl_0_6:B br_0_6:B bl_0_7:B br_0_7:B bl_0_8:B br_0_8:B bl_0_9:B br_0_9:B bl_0_10:B br_0_10:B bl_0_11:B br_0_11:B bl_0_12:B br_0_12:B bl_0_13:B br_0_13:B bl_0_14:B br_0_14:B bl_0_15:B br_0_15:B wl_0_0:I vdd:B gnd:B
* INOUT : bl_0_0 
* INOUT : br_0_0 
* INOUT : bl_0_1 
* INOUT : br_0_1 
* INOUT : bl_0_2 
* INOUT : br_0_2 
* INOUT : bl_0_3 
* INOUT : br_0_3 
* INOUT : bl_0_4 
* INOUT : br_0_4 
* INOUT : bl_0_5 
* INOUT : br_0_5 
* INOUT : bl_0_6 
* INOUT : br_0_6 
* INOUT : bl_0_7 
* INOUT : br_0_7 
* INOUT : bl_0_8 
* INOUT : br_0_8 
* INOUT : bl_0_9 
* INOUT : br_0_9 
* INOUT : bl_0_10 
* INOUT : br_0_10 
* INOUT : bl_0_11 
* INOUT : br_0_11 
* INOUT : bl_0_12 
* INOUT : br_0_12 
* INOUT : bl_0_13 
* INOUT : br_0_13 
* INOUT : bl_0_14 
* INOUT : br_0_14 
* INOUT : bl_0_15 
* INOUT : br_0_15 
* INPUT : wl_0_0 
* POWER : vdd 
* GROUND: gnd 
Xbit_r0_c0 bl_0_0 br_0_0 wl_0_0 vdd gnd dummy_cell_1rw
Xbit_r0_c1 bl_0_1 br_0_1 wl_0_0 vdd gnd dummy_cell_1rw
Xbit_r0_c2 bl_0_2 br_0_2 wl_0_0 vdd gnd dummy_cell_1rw
Xbit_r0_c3 bl_0_3 br_0_3 wl_0_0 vdd gnd dummy_cell_1rw
Xbit_r0_c4 bl_0_4 br_0_4 wl_0_0 vdd gnd dummy_cell_1rw
Xbit_r0_c5 bl_0_5 br_0_5 wl_0_0 vdd gnd dummy_cell_1rw
Xbit_r0_c6 bl_0_6 br_0_6 wl_0_0 vdd gnd dummy_cell_1rw
Xbit_r0_c7 bl_0_7 br_0_7 wl_0_0 vdd gnd dummy_cell_1rw
Xbit_r0_c8 bl_0_8 br_0_8 wl_0_0 vdd gnd dummy_cell_1rw
Xbit_r0_c9 bl_0_9 br_0_9 wl_0_0 vdd gnd dummy_cell_1rw
Xbit_r0_c10 bl_0_10 br_0_10 wl_0_0 vdd gnd dummy_cell_1rw
Xbit_r0_c11 bl_0_11 br_0_11 wl_0_0 vdd gnd dummy_cell_1rw
Xbit_r0_c12 bl_0_12 br_0_12 wl_0_0 vdd gnd dummy_cell_1rw
Xbit_r0_c13 bl_0_13 br_0_13 wl_0_0 vdd gnd dummy_cell_1rw
Xbit_r0_c14 bl_0_14 br_0_14 wl_0_0 vdd gnd dummy_cell_1rw
Xbit_r0_c15 bl_0_15 br_0_15 wl_0_0 vdd gnd dummy_cell_1rw
.ENDS dummy_array_1

.SUBCKT dummy_array_2 bl_0_0 br_0_0 wl_0_0 wl_0_1 wl_0_2 wl_0_3 wl_0_4 wl_0_5 wl_0_6 wl_0_7 wl_0_8 wl_0_9 wl_0_10 wl_0_11 wl_0_12 wl_0_13 wl_0_14 wl_0_15 wl_0_16 wl_0_17 wl_0_18 vdd gnd
*.PININFO bl_0_0:B br_0_0:B wl_0_0:I wl_0_1:I wl_0_2:I wl_0_3:I wl_0_4:I wl_0_5:I wl_0_6:I wl_0_7:I wl_0_8:I wl_0_9:I wl_0_10:I wl_0_11:I wl_0_12:I wl_0_13:I wl_0_14:I wl_0_15:I wl_0_16:I wl_0_17:I wl_0_18:I vdd:B gnd:B
* INOUT : bl_0_0 
* INOUT : br_0_0 
* INPUT : wl_0_0 
* INPUT : wl_0_1 
* INPUT : wl_0_2 
* INPUT : wl_0_3 
* INPUT : wl_0_4 
* INPUT : wl_0_5 
* INPUT : wl_0_6 
* INPUT : wl_0_7 
* INPUT : wl_0_8 
* INPUT : wl_0_9 
* INPUT : wl_0_10 
* INPUT : wl_0_11 
* INPUT : wl_0_12 
* INPUT : wl_0_13 
* INPUT : wl_0_14 
* INPUT : wl_0_15 
* INPUT : wl_0_16 
* INPUT : wl_0_17 
* INPUT : wl_0_18 
* POWER : vdd 
* GROUND: gnd 
Xbit_r0_c0 bl_0_0 br_0_0 wl_0_0 vdd gnd dummy_cell_1rw
Xbit_r1_c0 bl_0_0 br_0_0 wl_0_1 vdd gnd dummy_cell_1rw
Xbit_r2_c0 bl_0_0 br_0_0 wl_0_2 vdd gnd dummy_cell_1rw
Xbit_r3_c0 bl_0_0 br_0_0 wl_0_3 vdd gnd dummy_cell_1rw
Xbit_r4_c0 bl_0_0 br_0_0 wl_0_4 vdd gnd dummy_cell_1rw
Xbit_r5_c0 bl_0_0 br_0_0 wl_0_5 vdd gnd dummy_cell_1rw
Xbit_r6_c0 bl_0_0 br_0_0 wl_0_6 vdd gnd dummy_cell_1rw
Xbit_r7_c0 bl_0_0 br_0_0 wl_0_7 vdd gnd dummy_cell_1rw
Xbit_r8_c0 bl_0_0 br_0_0 wl_0_8 vdd gnd dummy_cell_1rw
Xbit_r9_c0 bl_0_0 br_0_0 wl_0_9 vdd gnd dummy_cell_1rw
Xbit_r10_c0 bl_0_0 br_0_0 wl_0_10 vdd gnd dummy_cell_1rw
Xbit_r11_c0 bl_0_0 br_0_0 wl_0_11 vdd gnd dummy_cell_1rw
Xbit_r12_c0 bl_0_0 br_0_0 wl_0_12 vdd gnd dummy_cell_1rw
Xbit_r13_c0 bl_0_0 br_0_0 wl_0_13 vdd gnd dummy_cell_1rw
Xbit_r14_c0 bl_0_0 br_0_0 wl_0_14 vdd gnd dummy_cell_1rw
Xbit_r15_c0 bl_0_0 br_0_0 wl_0_15 vdd gnd dummy_cell_1rw
Xbit_r16_c0 bl_0_0 br_0_0 wl_0_16 vdd gnd dummy_cell_1rw
Xbit_r17_c0 bl_0_0 br_0_0 wl_0_17 vdd gnd dummy_cell_1rw
Xbit_r18_c0 bl_0_0 br_0_0 wl_0_18 vdd gnd dummy_cell_1rw
.ENDS dummy_array_2

.SUBCKT dummy_array_3 bl_0_0 br_0_0 wl_0_0 wl_0_1 wl_0_2 wl_0_3 wl_0_4 wl_0_5 wl_0_6 wl_0_7 wl_0_8 wl_0_9 wl_0_10 wl_0_11 wl_0_12 wl_0_13 wl_0_14 wl_0_15 wl_0_16 wl_0_17 wl_0_18 vdd gnd
*.PININFO bl_0_0:B br_0_0:B wl_0_0:I wl_0_1:I wl_0_2:I wl_0_3:I wl_0_4:I wl_0_5:I wl_0_6:I wl_0_7:I wl_0_8:I wl_0_9:I wl_0_10:I wl_0_11:I wl_0_12:I wl_0_13:I wl_0_14:I wl_0_15:I wl_0_16:I wl_0_17:I wl_0_18:I vdd:B gnd:B
* INOUT : bl_0_0 
* INOUT : br_0_0 
* INPUT : wl_0_0 
* INPUT : wl_0_1 
* INPUT : wl_0_2 
* INPUT : wl_0_3 
* INPUT : wl_0_4 
* INPUT : wl_0_5 
* INPUT : wl_0_6 
* INPUT : wl_0_7 
* INPUT : wl_0_8 
* INPUT : wl_0_9 
* INPUT : wl_0_10 
* INPUT : wl_0_11 
* INPUT : wl_0_12 
* INPUT : wl_0_13 
* INPUT : wl_0_14 
* INPUT : wl_0_15 
* INPUT : wl_0_16 
* INPUT : wl_0_17 
* INPUT : wl_0_18 
* POWER : vdd 
* GROUND: gnd 
Xbit_r0_c0 bl_0_0 br_0_0 wl_0_0 vdd gnd dummy_cell_1rw
Xbit_r1_c0 bl_0_0 br_0_0 wl_0_1 vdd gnd dummy_cell_1rw
Xbit_r2_c0 bl_0_0 br_0_0 wl_0_2 vdd gnd dummy_cell_1rw
Xbit_r3_c0 bl_0_0 br_0_0 wl_0_3 vdd gnd dummy_cell_1rw
Xbit_r4_c0 bl_0_0 br_0_0 wl_0_4 vdd gnd dummy_cell_1rw
Xbit_r5_c0 bl_0_0 br_0_0 wl_0_5 vdd gnd dummy_cell_1rw
Xbit_r6_c0 bl_0_0 br_0_0 wl_0_6 vdd gnd dummy_cell_1rw
Xbit_r7_c0 bl_0_0 br_0_0 wl_0_7 vdd gnd dummy_cell_1rw
Xbit_r8_c0 bl_0_0 br_0_0 wl_0_8 vdd gnd dummy_cell_1rw
Xbit_r9_c0 bl_0_0 br_0_0 wl_0_9 vdd gnd dummy_cell_1rw
Xbit_r10_c0 bl_0_0 br_0_0 wl_0_10 vdd gnd dummy_cell_1rw
Xbit_r11_c0 bl_0_0 br_0_0 wl_0_11 vdd gnd dummy_cell_1rw
Xbit_r12_c0 bl_0_0 br_0_0 wl_0_12 vdd gnd dummy_cell_1rw
Xbit_r13_c0 bl_0_0 br_0_0 wl_0_13 vdd gnd dummy_cell_1rw
Xbit_r14_c0 bl_0_0 br_0_0 wl_0_14 vdd gnd dummy_cell_1rw
Xbit_r15_c0 bl_0_0 br_0_0 wl_0_15 vdd gnd dummy_cell_1rw
Xbit_r16_c0 bl_0_0 br_0_0 wl_0_16 vdd gnd dummy_cell_1rw
Xbit_r17_c0 bl_0_0 br_0_0 wl_0_17 vdd gnd dummy_cell_1rw
Xbit_r18_c0 bl_0_0 br_0_0 wl_0_18 vdd gnd dummy_cell_1rw
.ENDS dummy_array_3

.SUBCKT replica_bitcell_array rbl_bl_0_0 rbl_br_0_0 bl_0_0 br_0_0 bl_0_1 br_0_1 bl_0_2 br_0_2 bl_0_3 br_0_3 bl_0_4 br_0_4 bl_0_5 br_0_5 bl_0_6 br_0_6 bl_0_7 br_0_7 bl_0_8 br_0_8 bl_0_9 br_0_9 bl_0_10 br_0_10 bl_0_11 br_0_11 bl_0_12 br_0_12 bl_0_13 br_0_13 bl_0_14 br_0_14 bl_0_15 br_0_15 rbl_wl_0_0 wl_0_0 wl_0_1 wl_0_2 wl_0_3 wl_0_4 wl_0_5 wl_0_6 wl_0_7 wl_0_8 wl_0_9 wl_0_10 wl_0_11 wl_0_12 wl_0_13 wl_0_14 wl_0_15 vdd gnd